Vs 1 0 0 5 5 0
R1 1 2 20
C1 0 2 2
L1 0 2 1
H 2 8 C1 2.5
C2 1 7 1
R2 7 8 2
Is 8 2 5 0 0 0
G 2 8 1 2 3
dV 1u
dI 1m
dT 5m
.tran 0.5                                                                                                                                                                                                                                                                                                                      
